// 详见RationalHydroDynamics/RationalBuoyancy.cfg
@PART:HAS[#rationalBuoyancy]:NEEDS[zRationalBuoyancy]:AFTER[zRationalBuoyancy]
{
    // 利用正则表达式的简单粗暴字符串替换法
    @description ^= :<b>Buoyancy</b>:<b>浮力</b>:
}
