// 详见RationalHydroDynamics/RationalBuoyancy.cfg
@PART:HAS[#rationalBuoyancy]:NEEDS[zRationalBuoyancy]:AFTER[zRationalBuoyancy]
{
    @description ^= :<b>Buoyancy</b>:<b>浮力</b>:
}
